*****
* 
*****
.MODEL KP346B9 NMOS (VTO=-1.79519 KP=20U L=2U W=39.7933U GAMMA=0 PHI=600M
+ LAMBDA=49.6529M RD=170.013U RS=170.556U CGSO=617.586P CGDO=617.586P TOX=0
+ NSUB=0 TPG=1 UO=600 RG=61.7586 RDS=1MEG)
.MODEL 2P305A_B NMOS (VTO=-2.20906 KP=20U L=2U W=998.687 GAMMA=0 PHI=600M
+ LAMBDA=33.7593M RD=509.566 RS=76.2257M CBD=15.4318P CGSO=617.586P
+ CGDO=617.586P TOX=0 NSUB=0 TPG=1 UO=600 RG=61.7586 RDS=1MEG)
.MODEL 2P305G_2 NMOS (VTO=3.62581 KP=20U L=2U W=322.022N GAMMA=0 PHI=600M
+ LAMBDA=10.1838M RD=352.764M RS=508.162M CBD=26.6646P CGSO=617.586P
+ CGDO=617.586P TOX=0 NSUB=0 TPG=1 UO=600 RG=61.7586 RDS=1MEG)
.MODEL 2P310A NMOS (VTO=3.55331 KP=20U L=2U W=910.618N GAMMA=0 PHI=600M
+ LAMBDA=9.89837M RD=10.0123M RS=139.078M CBD=6.2468P CGSO=617.586P
+ CGDO=617.586P TOX=0 NSUB=0 TPG=1 UO=600 RG=61.7586 RDS=12.5K)
.MODEL 2P313A NMOS (VTO=976.603M KP=20U L=2U W=1.94151 GAMMA=0 PHI=600M
+ LAMBDA=9.14804M RD=229.862M RS=334.037M CBD=14.3295P CGSO=617.586P
+ CGDO=617.586P TOX=0 NSUB=0 TPG=1 UO=600 RDS=1MEG)
.MODEL 2P350A-B NMOS (VTO=0 KP=20U L=2U W=3.88239 GAMMA=0 PHI=600M
+ LAMBDA=61.7586M RD=1.00026K RS=527.618M CGSO=617.586P CGDO=617.586P TOX=0
+ NSUB=0 TPG=1 UO=600 RG=61.7586 RDS=4.28571K)
.MODEL KP346B9 NMOS (VTO=-1.79519 KP=20U L=2U W=39.7933U GAMMA=0 PHI=600M
+ LAMBDA=49.6529M RD=170.013U RS=170.556U CGSO=617.586P CGDO=617.586P TOX=0
+ NSUB=0 TPG=1 UO=600 RG=61.7586 RDS=1MEG)
*** NMOS 5A 0.4 Ohm 80V
.MODEL 2P702A NMOS (VTO=5.28704 KP=20U L=2U W=170.884M GAMMA=0 PHI=600M
+ LAMBDA=352.262F RS=416.723M CBD=477.65P CGSO=617.586P CGDO=617.586P TOX=0
+ NSUB=0 TPG=1 UO=600 RG=142.255 RDS=65K)
*** NMOS 8A 1.1 Ohm 400V
.MODEL KP707A NMOS (VTO=4.1605 KP=20U L=2U W=310.807M GAMMA=0 PHI=600M
+ LAMBDA=2.28801M RD=871.987M RS=264.195M CBD=587.878P CGSO=1.94687N
+ CGDO=157.148P TOX=0 NSUB=0 TPG=1 UO=600 RG=98.0481 RDS=320K)
*** NMOS 8A 1.1 Ohm 450V
.MODEL KP707A NMOS (VTO=4.16075 KP=20U L=2U W=310.975M GAMMA=0 PHI=600M
+ LAMBDA=2.28845M RD=871.998M RS=264.239M CBD=587.878P CGSO=1.94559N
+ CGDO=157.059P TOX=0 NSUB=0 TPG=1 UO=600 RG=98.0481 RDS=360K)
*** NMOS 3A 2.5 Ohm 400V
.MODEL 2P701B NMOS (VTO=3.83328 KP=20U L=2U W=122.966M GAMMA=0 PHI=600M
+ LAMBDA=576.195U RD=2.01229 RS=432.305M CBD=301.287P CGSO=3.26714N
+ CGDO=187.281P TOX=0 NSUB=0 TPG=1 UO=600 RG=134.636 RDS=320K)
*** NMOS 5A 0.3 Ohm 60V
.MODEL 2SK346 NMOS (VTO=5 KP=20U L=2U W=102.491M GAMMA=0 PHI=600M
+ LAMBDA=304.284F RS=250.359M CBD=771.589P CGSO=8.1426E-05F CGDO=4.08207N TOX=0
+ NSUB=0 TPG=1 UO=600 RG=21.9632 RDS=50K)
*** NMOS 10A 0.67 Ohm 400V
.MODEL 2P706B NMOS (VTO=3.70742 KP=20U L=2U W=161.983M GAMMA=0 PHI=600M
+ LAMBDA=67.9568U RD=443.846M RS=1.01945U CBD=2.35076N CGSO=9.99512N
+ CGDO=559.461P TOX=0 NSUB=0 TPG=1 UO=600 RG=71.0916 RDS=320K)
*** N-Channel 160V 0.5 Ohm 8A
.MODEL 2P803B NMOS (VTO=3.21428 KP=20U L=2U W=93.1911M GAMMA=0 PHI=600M
+ LAMBDA=611.643U RD=358.165M RS=13.4011M CBD=992.043P CGSO=6.71864N
+ CGDO=2.21899N TOX=0 NSUB=0 TPG=1 UO=600 RG=36.1803 RDS=140K)
*** N-Channel 500V 0.65 Ohm 12A
.MODEL A724B NMOS (VTO=3.42574 KP=20U L=2U W=385.185M GAMMA=0 PHI=600M
+ LAMBDA=1.22152M RD=529.787M RS=73.0513M CBD=1.28598N CGSO=5.00469N
+ CGDO=792.731P TOX=0 NSUB=0 TPG=1 UO=600 RG=31.4017 RDS=400K)
*** N-Channel 800V 6.0 Ohm 2A
.MODEL 2P803B NMOS (VTO=2.68635 KP=20U L=2U W=28.4677M GAMMA=0 PHI=600M
+ LAMBDA=4.38576M RD=3.14748 RS=234.103M CBD=360.075P CGSO=27.0076N
+ CGDO=1.4284N TOX=0 NSUB=0 TPG=1 UO=600 RG=58.8119 RDS=640K)
*** N-Channel 800V 4 Ohm 5A
.MODEL A842B NMOS (VTO=3.28127 KP=20U L=2U W=168.687M GAMMA=0 PHI=600M
+ LAMBDA=1.44689M RD=2.40374 RS=410.647M CBD=771.589P CGSO=7.20561N
+ CGDO=523.07P TOX=0 NSUB=0 TPG=1 UO=600 RG=79.5399 RDS=640K)
*** N-Channel 500V 6.0 Ohm 6A
.MODEL 2P905A NMOS (VTO=3.40928 KP=20U L=2U W=144.821M GAMMA=0 PHI=600M
+ LAMBDA=5.34071M RD=3.0984 RS=103.139M CBD=304.961P CGSO=1.33845N
+ CGDO=204.254P TOX=0 NSUB=0 TPG=1 UO=600 RG=88.5886 RDS=4MEG)
*** N-Channel 500V 1.0 Ohm 10A
.MODEL 2P815A-G NMOS (VTO=3.31927 KP=20U L=2U W=933.949M GAMMA=0 PHI=600M
+ LAMBDA=2.22274M RD=725.244M RS=39.7048M CBD=1.48807N CGSO=917.61P
+ CGDO=134.062P TOX=0 NSUB=0 TPG=1 UO=600 RG=60.8602 RDS=1.6MEG)
*** N-Channel 500V 0.60 Ohm 12A
.MODEL KP809B1-5 NMOS (VTO=3.77711 KP=20U L=2U W=1.58248 GAMMA=0 PHI=600M
+ LAMBDA=38.9771N RD=376.624M RS=34.2372M CBD=2.35151N CGSO=534.325P
+ CGDO=121.181P TOX=0 NSUB=0 TPG=1 UO=600 RG=66.1397 RDS=1.6MEG)
*** N-Channel 500V 0.9 Ohm 10A
.MODEL 2P706A NMOS (VTO=3.76927 KP=20U L=2U W=3.97212 GAMMA=0 PHI=600M
+ LAMBDA=13.4762M RD=666.028M RS=80.873M CBD=881.816P CGSO=1.2185E-05F
+ CGDO=9.6085E-06F TOX=0 NSUB=0 TPG=1 UO=600 RG=171.571 RDS=1.6MEG)
*** NMOS 3A 2.5 Ohm 400V
.MODEL A702B NMOS (VTO=3.83328 KP=20U L=2U W=122.966M GAMMA=0 PHI=600M
+ LAMBDA=576.195U RD=2.01229 RS=432.305M CBD=301.287P CGSO=3.26714N
+ CGDO=187.281P TOX=0 NSUB=0 TPG=1 UO=600 RG=134.636 RDS=320K)
*** NMOS 10A 0.67 Ohm 400V
.MODEL 2P706V NMOS (VTO=3.70742 KP=20U L=2U W=161.983M GAMMA=0 PHI=600M
+ LAMBDA=67.9568U RD=443.846M RS=1.01945U CBD=2.35076N CGSO=9.99512N
+ CGDO=559.461P TOX=0 NSUB=0 TPG=1 UO=600 RG=71.0916 RDS=320K)
*** N-Channel 120V 7A
.MODEL 2P335A2 NMOS (VTO=-183.698M KP=20U L=2U W=55.5574M GAMMA=0 PHI=600M
+ LAMBDA=11.4665M RD=95.1605M RS=486.302M CBD=1.24924N CGSO=617.586P
+ CGDO=617.586P TOX=0 NSUB=0 TPG=1 UO=600 RDS=1MEG)
*** N-Channel 120V 0.2 Ohm 10A
.MODEL 2P308E9 NMOS (VTO=3.47192 KP=20U L=2U W=402.295M GAMMA=0 PHI=600M
+ LAMBDA=11.2937F RD=97.1418M RS=26.3417M CBD=1.06553N CGSO=859.63P
+ CGDO=308.155P TOX=0 NSUB=0 TPG=1 UO=600 RG=55.7022 RDS=400K)
*** N-Channel 140V 0.5 Ohm 8A
.MODEL 2P341B NMOS (VTO=3.21429 KP=20U L=2U W=93.1934M GAMMA=0 PHI=600M
+ LAMBDA=611.715U RD=358.168M RS=13.4069M CBD=992.043P CGSO=6.71851N
+ CGDO=2.21893N TOX=0 NSUB=0 TPG=1 UO=600 RG=36.1803 RDS=120K)
*** N-Channel 140V 0.5 Ohm 8A
.MODEL 2P341B1 NMOS (VTO=3.21429 KP=20U L=2U W=93.1934M GAMMA=0 PHI=600M
+ LAMBDA=611.715U RD=358.168M RS=13.4069M CBD=992.043P CGSO=6.71851N
+ CGDO=2.21893N TOX=0 NSUB=0 TPG=1 UO=600 RG=36.1803 RDS=120K)
*** N-Channel 250V 50 Ohm 0.3A
.MODEL 2P341A NMOS (VTO=2.72393 KP=20U L=2U W=5.47291M GAMMA=0 PHI=600M
+ LAMBDA=3.90946M RD=35.0991 RS=1.74672 CBD=27.5568P CGSO=617.586P
+ CGDO=617.586P TOX=0 NSUB=0 TPG=1 UO=600 RG=61.7586 RDS=200K)
*** NMOS 200V 9A 0.4 Ohm
.MODEL KP704A NMOS (VTO=3 KP=20U L=2U W=94.8012M GAMMA=0 PHI=600M LAMBDA=10M
+ RD=220.004M RS=8.55043M CBD=1.70367N CGSO=617.586P CGDO=617.586P TOX=0 NSUB=0
+ TPG=1 UO=600 RG=44.2534 RDS=1MEG)
*** NMOS 6A 2 Ohm 800V
.MODEL KP705A NMOS (VTO=3 KP=20U L=2U W=57.8197M GAMMA=0 PHI=600M LAMBDA=10M
+ RD=1.20019 RS=18.6641M CBD=681.469P CGSO=617.586P CGDO=617.586P TOX=0 NSUB=0
+ TPG=1 UO=600 RG=476.697 RDS=3.2MEG)
*** NMOS 3A 2.5 Ohm 600V
.MODEL KP707B NMOS (VTO=3.42934 KP=20U L=2U W=157.051M GAMMA=0 PHI=600M
+ LAMBDA=50M RD=1.33421 RS=167.467M CBD=1.24936N CGSO=1.8981N CGDO=359.173P
+ TOX=0 NSUB=0 TPG=1 UO=600 RDS=3MEG)
*** N-Channel 500V .8 Ohm 7A
.MODEL 2P706A1 NMOS (VTO=3.32897 KP=20U L=2U W=805.918M GAMMA=0 PHI=600M
+ LAMBDA=34.3351M RD=738.482M RS=211.137M CBD=1.13578N CGSO=7.0862E-06F
+ CGDO=161.291P TOX=0 NSUB=0 TPG=1 UO=600 RG=157.231 RDS=2.5MEG)
*** NMOS 4A 2 Ohm 600V
.MODEL KP709A NMOS (VTO=3 KP=20U L=2U W=134.432M GAMMA=0 PHI=600M LAMBDA=10M
+ RD=1.67455 RS=14.2879M CBD=567.891P CGSO=617.586P CGDO=617.586P TOX=0 NSUB=0
+ TPG=1 UO=600 RG=111.868 RDS=2.4MEG)
*** NMOS 4A 2 Ohm 600V
.MODEL KP709B NMOS (VTO=3 KP=20U L=2U W=134.432M GAMMA=0 PHI=600M LAMBDA=10M
+ RD=1.67455 RS=14.2879M CBD=567.891P CGSO=617.586P CGDO=617.586P TOX=0 NSUB=0
+ TPG=1 UO=600 RG=111.868 RDS=2.4MEG)
*** NMOS 3A 2.5 Ohm 600V
.MODEL KP709V NMOS (VTO=3.42934 KP=20U L=2U W=157.051M GAMMA=0 PHI=600M
+ LAMBDA=50M RD=1.33421 RS=167.467M CBD=1.24936N CGSO=1.8981N CGDO=359.173P
+ TOX=0 NSUB=0 TPG=1 UO=600 RDS=3MEG)
*** NMOS 12A 0.1 Ohm 50V
.MODEL A724A NMOS (VTO=3.35407 KP=20U L=2U W=595.672M GAMMA=0 PHI=600M
+ LAMBDA=752.797F RS=50.489M CBD=965.415P CGSO=1.2E-05F CGDO=305.533P TOX=0
+ NSUB=0 TPG=1 UO=600 RG=94.7313 RDS=200K)
*** NMOS 12A 0.1 Ohm 50V
.MODEL 2P803A NMOS (VTO=3.35407 KP=20U L=2U W=595.672M GAMMA=0 PHI=600M
+ LAMBDA=752.797F RS=50.489M CBD=965.415P CGSO=1.2E-05F CGDO=305.533P TOX=0
+ NSUB=0 TPG=1 UO=600 RG=94.7313 RDS=200K)
*** NMOS 4A 2 Ohm 600V
.MODEL KP805B NMOS (VTO=3 KP=20U L=2U W=134.432M GAMMA=0 PHI=600M LAMBDA=10M
+ RD=1.67455 RS=14.2879M CBD=567.891P CGSO=617.586P CGDO=617.586P TOX=0 NSUB=0
+ TPG=1 UO=600 RG=111.868 RDS=2.4MEG)
*** NMOS 3A 2.5 Ohm 600V
.MODEL KP805V NMOS (VTO=3.42934 KP=20U L=2U W=157.051M GAMMA=0 PHI=600M
+ LAMBDA=50M RD=1.33421 RS=167.467M CBD=1.24936N CGSO=1.8981N CGDO=359.173P
+ TOX=0 NSUB=0 TPG=1 UO=600 RDS=3MEG)
*** NMOS 6A 1.5 Ohm 800V
.MODEL KP809D NMOS (VTO=18.5276 KP=20U L=2U W=4.0338 GAMMA=0 PHI=600M
+ LAMBDA=42.1661M RD=581.358M RS=526.308M CBD=1.98762N CGSO=617.586P
+ CGDO=617.586P TOX=0 NSUB=0 TPG=1 UO=600 RG=2.45907 RDS=4MEG)
*** NMOS 25A 0.085 Ohm 200V
.MODEL KP813A1-5 NMOS (VTO=3 KP=20U L=2U W=236.987M GAMMA=0 PHI=600M LAMBDA=10M
+ RD=36.6497M RS=10.1681M CBD=3.97524N CGSO=617.586P CGDO=617.586P TOX=0 NSUB=0
+ TPG=1 UO=600 RG=44.6541 RDS=1MEG)
*** NMOS 6A 1.5 Ohm 800V
.MODEL 2P815B NMOS (VTO=18.5276 KP=20U L=2U W=4.0338 GAMMA=0 PHI=600M
+ LAMBDA=42.1661M RD=581.358M RS=526.308M CBD=1.98762N CGSO=617.586P
+ CGDO=617.586P TOX=0 NSUB=0 TPG=1 UO=600 RG=2.45907 RDS=4MEG)
*** NMOS 9.5A 0.6 Ohm 500V
.MODEL A843A NMOS (VTO=4.26051 KP=20U L=2U W=1.06213 GAMMA=0 PHI=600M
+ LAMBDA=30.9954M RD=399.488M RS=74.1467M CBD=851.836P CGSO=1.08971N
+ CGDO=86.8035P TOX=0 NSUB=0 TPG=1 UO=600 RG=141.003 RDS=500MEG)
*** NMOS 5A 1 Ohm 400V
.MODEL 2P909A NMOS (VTO=3.32856 KP=20U L=2U W=321.523M GAMMA=0 PHI=600M
+ LAMBDA=23.2837M RD=773.98M RS=103.153M CBD=1.24936N CGSO=1.3988N
+ CGDO=155.448P TOX=0 NSUB=0 TPG=1 UO=600 RG=274.206 RDS=2MEG)
*** NMOS 4A 0.6 Ohm 50V
.MODEL 2P912A NMOS (VTO=1.53056 KP=20U L=2U W=331.418M GAMMA=0 PHI=600M
+ LAMBDA=10.5735M RD=76.7299M RS=309.462M CBD=340.734P CGSO=2.7992E-05F
+ CGDO=955.867P TOX=0 NSUB=0 TPG=1 UO=600 RG=19.8877 RDS=50MEG)
*** NMOS 7A 0.4 Ohm 60V
.MODEL 2P912B NMOS (VTO=3 KP=20U L=2U W=35.4726M GAMMA=0 PHI=600M LAMBDA=10M
+ RS=73.0467M CBD=1.70367N CGSO=617.586P CGDO=617.586P TOX=0 NSUB=0 TPG=1
+ UO=600 RG=219.342 RDS=500K)
*** NMOS 200V 5A 0.8 Ohm
.MODEL KP704B NMOS (VTO=3 KP=20U L=2U W=34.6932M GAMMA=0 PHI=600M LAMBDA=10M
+ RD=297.438M RS=9.96727M CBD=1.24936N CGSO=617.586P CGDO=617.586P TOX=0 NSUB=0
+ TPG=1 UO=600 RG=174.895 RDS=1MEG)
*** NMOS 200V 9A 0.4 Ohm
.MODEL KP702A NMOS (VTO=3 KP=20U L=2U W=94.8012M GAMMA=0 PHI=600M LAMBDA=10M
+ RD=220.004M RS=8.55043M CBD=1.70367N CGSO=617.586P CGDO=617.586P TOX=0 NSUB=0
+ TPG=1 UO=600 RG=44.2534 RDS=1MEG)
*** N-Channel 120V 7A
.MODEL 2P335A21 NMOS (VTO=-183.698M KP=20U L=2U W=55.5574M GAMMA=0 PHI=600M
+ LAMBDA=11.4665M RD=95.1605M RS=486.302M CBD=1.24924N CGSO=617.586P
+ CGDO=617.586P TOX=0 NSUB=0 TPG=1 UO=600 RDS=1MEG)
*** N-Channel 140V 7A
.MODEL 2P327A NMOS (VTO=-183.698M KP=20U L=2U W=55.5574M GAMMA=0 PHI=600M
+ LAMBDA=11.4665M RD=95.1605M RS=486.302M CBD=1.24924N CGSO=617.586P
+ CGDO=617.586P TOX=0 NSUB=0 TPG=1 UO=600 RDS=1MEG)
.MODEL KP346B9 NMOS (VTO=-1.79519 KP=20U L=2U W=39.7933U GAMMA=0 PHI=600M
+ LAMBDA=49.6529M RD=170.013U RS=170.556U CGSO=617.586P CGDO=617.586P TOX=0
+ NSUB=0 TPG=1 UO=600 RG=61.7586 RDS=1MEG)
.MODEL 2P305A_B NMOS (VTO=-2.20906 KP=20U L=2U W=998.687 GAMMA=0 PHI=600M
+ LAMBDA=33.7593M RD=509.566 RS=76.2257M CBD=15.4318P CGSO=617.586P
+ CGDO=617.586P TOX=0 NSUB=0 TPG=1 UO=600 RG=61.7586 RDS=1MEG)
.MODEL 2P305G_2 NMOS (VTO=3.62581 KP=20U L=2U W=322.022N GAMMA=0 PHI=600M
+ LAMBDA=10.1838M RD=352.764M RS=508.162M CBD=26.6646P CGSO=617.586P
+ CGDO=617.586P TOX=0 NSUB=0 TPG=1 UO=600 RG=61.7586 RDS=1MEG)
.MODEL 2P310A NMOS (VTO=3.55331 KP=20U L=2U W=910.618N GAMMA=0 PHI=600M
+ LAMBDA=9.89837M RD=10.0123M RS=139.078M CBD=6.2468P CGSO=617.586P
+ CGDO=617.586P TOX=0 NSUB=0 TPG=1 UO=600 RG=61.7586 RDS=12.5K)
.MODEL 2P313A NMOS (VTO=976.603M KP=20U L=2U W=1.94151 GAMMA=0 PHI=600M
+ LAMBDA=9.14804M RD=229.862M RS=334.037M CBD=14.3295P CGSO=617.586P
+ CGDO=617.586P TOX=0 NSUB=0 TPG=1 UO=600 RDS=1MEG)
.MODEL 2P350A-B NMOS (VTO=0 KP=20U L=2U W=3.88239 GAMMA=0 PHI=600M
+ LAMBDA=61.7586M RD=1.00026K RS=527.618M CGSO=617.586P CGDO=617.586P TOX=0
+ NSUB=0 TPG=1 UO=600 RG=61.7586 RDS=4.28571K)
.MODEL 2P302A NJF (VTO=-8.58349 BETA=9.84939U LAMBDA=2.22333 RS=2.38485K
+ CGD=26.533P CGS=13.3668P KF=0.001F AF=500M)
.MODEL 2P308A9 NJF (VTO=-1.80999 BETA=266.016U LAMBDA=10M RS=104.515
+ CGD=6.63325P CGS=4P KF=0.001F AF=500M)
.MODEL AP320A_2 NJF (VTO=-1.38222 BETA=1.54873M LAMBDA=1M RS=9.99347 CGD=150F
+ CGS=87.3157F PB=6.17586 KF=0.00617586F AF=3.08793)
.MODEL KP333 NJF (VTO=-4.26143 BETA=142.673U LAMBDA=66.7M RS=8.37424 CGD=6P
+ CGS=1000F PB=6.17586 KF=0.00617586F AF=3.08793)
.MODEL 2P335A_2 NJF (VTO=-3.60489 BETA=798.565U LAMBDA=8.7M RS=9.68578 CGD=4P
+ CGS=3P KF=0.00617586F AF=3.08793)
.MODEL 2P601A9 NJF (VTO=-10.0478 BETA=2.03015M LAMBDA=1M RS=9.97222
+ CGD=27.4955P CGS=1000F KF=0.001F AF=500M)
.MODEL 3P607A_2 NJF (VTO=-5.2499 BETA=7.78814M LAMBDA=400M RS=6.03142 CGD=10P
+ CGS=1000F PB=6.17586 KF=0.001F AF=500M)
.MODEL 3P608A_2 NJF (VTO=-3.26202 BETA=1.2817M LAMBDA=1M RS=9.67757 CGD=10P
+ CGS=1000F PB=6.17586 KF=0.001F AF=500M)
.MODEL 2P609A_B NJF (VTO=-6.30245 BETA=923.371U LAMBDA=250U RS=9.74265
+ CGD=10.6132P CGS=7.3467P KF=0.001F AF=500M)
.MODEL 2PS104A_B NJF (VTO=-10.0056 BETA=2.25262U LAMBDA=100U RS=9.79566K
+ CGD=1.5P CGS=3.57316P PB=6.17586 KF=0.00617586F AF=3.08793)
.MODEL KP302GM NJF (VTO=-20.0993 BETA=95.2478U LAMBDA=1 RS=9.83921 CGD=8P
+ CGS=15.0568P PB=6.17586 KF=0.001F AF=500M)
.MODEL 2P303A_B NJF (VTO=-9.98362 BETA=15.0776U LAMBDA=125M CGD=6.63325P CGS=4P
+ KF=0.001F AF=500M)
.MODEL KP303E NJF (VTO=-9.9819 BETA=117.837U LAMBDA=1 RS=9.11785 CGD=6.63325P
+ CGS=4P KF=0.001F AF=500M)
.MODEL 2P307A NJF (VTO=-9.98422 BETA=59.5911U LAMBDA=40M RS=8.34549
+ CGD=4.97494P CGS=3.5P KF=0.001F AF=500M)
.MODEL 2P308A_1 NJF (VTO=-1.03687 BETA=4.11024U LAMBDA=20M CGD=6.63325P
+ CGS=4.34169P KF=0.001F AF=500M)
.MODEL KP314A NJF (VTO=-1.9997 BETA=2.47144M LAMBDA=50K RS=10 CGD=2P
+ CGS=4.76421P PB=6.17586 KF=0.001F AF=500M)
.MODEL KP323A_2 NJF (VTO=-2.08254 BETA=1.31267M LAMBDA=1M RS=9.2384 CGD=1.2P
+ CGS=3.35195P PB=6.17586 KF=0.001F AF=500M)
.MODEL KP329A_B NJF (VTO=-1.69908 BETA=243.969U LAMBDA=667M RS=325.483 CGD=2P
+ CGS=4.76421P PB=6.17586 KF=0.001F AF=500M)
.MODEL 2P333A_B NJF (VTO=-2.77639 BETA=128.981U LAMBDA=1M RS=8.07477 CGD=2P
+ CGS=4.91991P PB=6.17586 KF=0.001F AF=500M)
.MODEL 3P330A_2 NJF (VTO=-3.05898 BETA=3.19876M LAMBDA=1M RS=116.467M CGD=1000F
+ CGS=1000F KF=0.001F AF=500M)
.MODEL 3P331A_2 NJF (VTO=-5.2118 BETA=3.20362M LAMBDA=1M RS=7.56352 CGD=1000F
+ CGS=1000F KF=0.001F AF=500M)
.MODEL 2P337AP NJF (VTO=-3.40621 BETA=3.44381M LAMBDA=380K RS=9.75152 CGD=2.5P
+ CGS=4.14989P PB=6.17586 KF=0.001F AF=500M)
.MODEL 2P341A_B NJF (VTO=-1.19089 BETA=2.52262M LAMBDA=1M RS=82.513 CGD=1000F
+ CGS=1.05996P PB=6.17586 KF=0.001F AF=500M)
.MODEL 2P308A9 NJF (VTO=-1.80999 BETA=266.016U LAMBDA=10M RS=104.515
+ CGD=6.63325P CGS=4P KF=0.001F AF=500M)
.MODEL AP320A_2 NJF (VTO=-1.38222 BETA=1.54873M LAMBDA=1M RS=9.99347 CGD=150F
+ CGS=87.3157F PB=6.17586 KF=0.00617586F AF=3.08793)
.MODEL KP333 NJF (VTO=-4.26143 BETA=142.673U LAMBDA=66.7M RS=8.37424 CGD=6P
+ CGS=1000F PB=6.17586 KF=0.00617586F AF=3.08793)
.MODEL 2P335A_2 NJF (VTO=-3.60489 BETA=798.565U LAMBDA=8.7M RS=9.68578 CGD=4P
+ CGS=3P KF=0.00617586F AF=3.08793)
.MODEL 2P601A9 NJF (VTO=-10.0478 BETA=2.03015M LAMBDA=1M RS=9.97222
+ CGD=27.4955P CGS=1000F KF=0.001F AF=500M)
.MODEL 3P607A_2 NJF (VTO=-5.2499 BETA=7.78814M LAMBDA=400M RS=6.03142 CGD=10P
+ CGS=1000F PB=6.17586 KF=0.001F AF=500M)
.MODEL 3P608A_2 NJF (VTO=-3.26202 BETA=1.2817M LAMBDA=1M RS=9.67757 CGD=10P
+ CGS=1000F PB=6.17586 KF=0.001F AF=500M)
.MODEL 2P609A_B NJF (VTO=-6.30245 BETA=923.371U LAMBDA=250U RS=9.74265
+ CGD=10.6132P CGS=7.3467P KF=0.001F AF=500M)
.MODEL 2PS104A_B NJF (VTO=-10.0056 BETA=2.25262U LAMBDA=100U RS=9.79566K
+ CGD=1.5P CGS=3.57316P PB=6.17586 KF=0.00617586F AF=3.08793)
.MODEL 2PS202A_2 NJF (VTO=-10.0176 BETA=697.068N LAMBDA=92.8571M RS=31.5231K
+ CGD=2P CGS=1.76421P PB=6.17586 KF=0.001F AF=500M)
*** N-channel JFET
.MODEL 2P308A NJF (VTO=-2.63733 BETA=894.212U LAMBDA=1M CGD=1.51683P
+ CGS=1.94378P PB=5.4504 KF=0.00400911F AF=500.03M)
*** N-channel JFET
.MODEL 2P308B9 NJF (VTO=-2.63733 BETA=894.212U LAMBDA=1M CGD=1.51683P
+ CGS=1.94378P PB=5.4504 KF=0.00400911F AF=500.03M)
*** N-channel JFET
.MODEL 2P308V9 NJF (VTO=-1.66726 BETA=1.27193M LAMBDA=1M CGD=1.51683P
+ CGS=2.1516P PB=5.4504 KF=0.00281869F AF=500.423M)
*** N-Channel JFET Process 50
.MODEL 2P601A NJF (VTO=-4.42447 BETA=687.44U LAMBDA=20M CGD=1.45913P
+ CGS=2.50542P PB=1.75991 KF=0.000281125F AF=497.042M)
.MODEL 2P302A NJF (VTO=-8.58349 BETA=9.84939U LAMBDA=2.22333 RS=2.38485K
+ CGD=26.533P CGS=13.3668P KF=0.001F AF=500M)
.MODEL 2P308A9 NJF (VTO=-1.80999 BETA=266.016U LAMBDA=10M RS=104.515
+ CGD=6.63325P CGS=4P KF=0.001F AF=500M)
.MODEL AP320A_2 NJF (VTO=-1.38222 BETA=1.54873M LAMBDA=1M RS=9.99347 CGD=150F
+ CGS=87.3157F PB=6.17586 KF=0.00617586F AF=3.08793)
.MODEL KP333 NJF (VTO=-4.26143 BETA=142.673U LAMBDA=66.7M RS=8.37424 CGD=6P
+ CGS=1000F PB=6.17586 KF=0.00617586F AF=3.08793)
.MODEL 2P335A_2 NJF (VTO=-3.60489 BETA=798.565U LAMBDA=8.7M RS=9.68578 CGD=4P
+ CGS=3P KF=0.00617586F AF=3.08793)
.MODEL 2P601A9 NJF (VTO=-10.0478 BETA=2.03015M LAMBDA=1M RS=9.97222
+ CGD=27.4955P CGS=1000F KF=0.001F AF=500M)
.MODEL 3P607A_2 NJF (VTO=-5.2499 BETA=7.78814M LAMBDA=400M RS=6.03142 CGD=10P
+ CGS=1000F PB=6.17586 KF=0.001F AF=500M)
.MODEL 3P608A_2 NJF (VTO=-3.26202 BETA=1.2817M LAMBDA=1M RS=9.67757 CGD=10P
+ CGS=1000F PB=6.17586 KF=0.001F AF=500M)
.MODEL 2P609A_B NJF (VTO=-6.30245 BETA=923.371U LAMBDA=250U RS=9.74265
+ CGD=10.6132P CGS=7.3467P KF=0.001F AF=500M)
.MODEL 2PS104A_B NJF (VTO=-10.0056 BETA=2.25262U LAMBDA=100U RS=9.79566K
+ CGD=1.5P CGS=3.57316P PB=6.17586 KF=0.00617586F AF=3.08793)
.MODEL KP302GM NJF (VTO=-20.0993 BETA=95.2478U LAMBDA=1 RS=9.83921 CGD=8P
+ CGS=15.0568P PB=6.17586 KF=0.001F AF=500M)
.MODEL 2P303A_B NJF (VTO=-9.98362 BETA=15.0776U LAMBDA=125M CGD=6.63325P CGS=4P
+ KF=0.001F AF=500M)
.MODEL KP303E NJF (VTO=-9.9819 BETA=117.837U LAMBDA=1 RS=9.11785 CGD=6.63325P
+ CGS=4P KF=0.001F AF=500M)
.MODEL 2P307A NJF (VTO=-9.98422 BETA=59.5911U LAMBDA=40M RS=8.34549
+ CGD=4.97494P CGS=3.5P KF=0.001F AF=500M)
.MODEL 2P308A_1 NJF (VTO=-1.03687 BETA=4.11024U LAMBDA=20M CGD=6.63325P
+ CGS=4.34169P KF=0.001F AF=500M)
.MODEL KP314A NJF (VTO=-1.9997 BETA=2.47144M LAMBDA=50K RS=10 CGD=2P
+ CGS=4.76421P PB=6.17586 KF=0.001F AF=500M)
.MODEL KP323A_2 NJF (VTO=-2.08254 BETA=1.31267M LAMBDA=1M RS=9.2384 CGD=1.2P
+ CGS=3.35195P PB=6.17586 KF=0.001F AF=500M)
.MODEL KP329A_B NJF (VTO=-1.69908 BETA=243.969U LAMBDA=667M RS=325.483 CGD=2P
+ CGS=4.76421P PB=6.17586 KF=0.001F AF=500M)
.MODEL 2P333A_B NJF (VTO=-2.77639 BETA=128.981U LAMBDA=1M RS=8.07477 CGD=2P
+ CGS=4.91991P PB=6.17586 KF=0.001F AF=500M)
.MODEL 3P330A_2 NJF (VTO=-3.05898 BETA=3.19876M LAMBDA=1M RS=116.467M CGD=1000F
+ CGS=1000F KF=0.001F AF=500M)
.MODEL 3P331A_2 NJF (VTO=-5.2118 BETA=3.20362M LAMBDA=1M RS=7.56352 CGD=1000F
+ CGS=1000F KF=0.001F AF=500M)
.MODEL 2P337AP NJF (VTO=-3.40621 BETA=3.44381M LAMBDA=380K RS=9.75152 CGD=2.5P
+ CGS=4.14989P PB=6.17586 KF=0.001F AF=500M)
.MODEL 2P341A_B NJF (VTO=-1.19089 BETA=2.52262M LAMBDA=1M RS=82.513 CGD=1000F
+ CGS=1.05996P PB=6.17586 KF=0.001F AF=500M)
.MODEL 3P345A-2 NJF (VTO=-2.00493 BETA=4.12353M LAMBDA=1M RS=9.86928 CGD=1000F
+ CGS=125.833F KF=0.001F AF=500M)
.MODEL 2P301A PMOS (VTO=-3.00033 KP=20U L=2U W=21.2979U GAMMA=0 PHI=600M
+ LAMBDA=10.0001M RD=60.9288M RS=9.16922M CBD=6.66615P CGSO=617.586P
+ CGDO=617.586P TOX=0 NSUB=0 TPG=1 UO=600 RG=61.7586 RDS=1MEG)
.MODEL KP301G PMOS (VTO=-2.99136 KP=20U L=2U W=24.7838U GAMMA=0 PHI=600M
+ LAMBDA=10.0008M RD=60.902M RS=9.12891M CBD=7.99937P CGSO=617.586P
+ CGDO=617.586P TOX=0 NSUB=0 TPG=1 UO=600 RG=61.7586 RDS=1MEG)
.MODEL 2P304A PMOS (VTO=-3.91571 KP=20U L=2U W=1.52394U GAMMA=0 PHI=600M
+ LAMBDA=11.6379M RD=100M RS=4.77455 CBD=11.1102P CGSO=617.586P CGDO=617.586P
+ TOX=0 NSUB=0 TPG=1 UO=600 RG=61.7586 RDS=125MEG)
*** P-Channel -120V 0.25 Ohm -10A
.MODEL KP944B PMOS (VTO=-2.60127 KP=20U L=2U W=339.013M GAMMA=0 PHI=600M
+ LAMBDA=4.62803M RD=103.708M RS=25.3828M CBD=1.85549N CGSO=2.57676N
+ CGDO=1.56279N TOX=0 NSUB=0 TPG=1 UO=600 RG=35.9185 RDS=400K)
*** P-Channel -300V 8.5 Ohm -1A
.MODEL 2P703B PMOS (VTO=-3.07941 KP=20U L=2U W=47.4916M GAMMA=0 PHI=600M
+ LAMBDA=1.6204M RD=5.78086 RS=131.296M CBD=180.037P CGSO=4.57885N
+ CGDO=1.00476N TOX=0 NSUB=0 TPG=1 UO=600 RG=125.781 RDS=2.4MEG)
*** PMOS 8A 0.4 Ohm 100V
.MODEL 2P712V PMOS (VTO=-3.22696 KP=20U L=2U W=149.032M GAMMA=0 PHI=600M
+ LAMBDA=5.88641M RD=113.633M RS=58.5729M CBD=2.38514N CGSO=4.80618N
+ CGDO=1.86287N TOX=0 NSUB=0 TPG=1 UO=600 RG=99.4209 RDS=10MEG)
*** PMOS 8A 0.4 Ohm 100V
.MODEL 2P712V1 PMOS (VTO=-3.22696 KP=20U L=2U W=149.032M GAMMA=0 PHI=600M
+ LAMBDA=5.88641M RD=113.633M RS=58.5729M CBD=2.38514N CGSO=4.80618N
+ CGDO=1.86287N TOX=0 NSUB=0 TPG=1 UO=600 RG=99.4209 RDS=10MEG)
*** PMOS 8A 0.4 Ohm 100V
.MODEL 2P712V2 PMOS (VTO=-3.22696 KP=20U L=2U W=149.032M GAMMA=0 PHI=600M
+ LAMBDA=5.88641M RD=113.633M RS=58.5729M CBD=2.38514N CGSO=4.80618N
+ CGDO=1.86287N TOX=0 NSUB=0 TPG=1 UO=600 RG=99.4209 RDS=10MEG)
.MODEL 2P301A PMOS (VTO=-3.00033 KP=20U L=2U W=21.2979U GAMMA=0 PHI=600M
+ LAMBDA=10.0001M RD=60.9288M RS=9.16922M CBD=6.66615P CGSO=617.586P
+ CGDO=617.586P TOX=0 NSUB=0 TPG=1 UO=600 RG=61.7586 RDS=1MEG)
.MODEL KP301G PMOS (VTO=-2.99136 KP=20U L=2U W=24.7838U GAMMA=0 PHI=600M
+ LAMBDA=10.0008M RD=60.902M RS=9.12891M CBD=7.99937P CGSO=617.586P
+ CGDO=617.586P TOX=0 NSUB=0 TPG=1 UO=600 RG=61.7586 RDS=1MEG)
.MODEL 2P304A PMOS (VTO=-3.91571 KP=20U L=2U W=1.52394U GAMMA=0 PHI=600M
+ LAMBDA=11.6379M RD=100M RS=4.77455 CBD=11.1102P CGSO=617.586P CGDO=617.586P
+ TOX=0 NSUB=0 TPG=1 UO=600 RG=61.7586 RDS=125MEG)
.MODEL 2P101A PJF (VTO=12.3517 BETA=12.3517M LAMBDA=-5.3M RS=61.7586
+ CGD=5.38888P CGS=7.8321E-08F KF=0.00617586F AF=3.08793)
.MODEL KP101G PJF (VTO=12.3517 BETA=12.3517M LAMBDA=-20M RS=61.7586 CGD=2.2P
+ CGS=364.574F PB=6.17586 KF=0.001F AF=500M)
.MODEL 2P103A PJF (VTO=12.3517 BETA=12.3517M LAMBDA=-10M RS=61.7586 CGD=8P
+ CGS=12.0568P PB=6.17586 KF=0.00617586F AF=3.08793)
.MODEL KP103MP PJF (VTO=12.3517 BETA=12.3517M LAMBDA=-70M RS=61.7586 CGD=8P
+ CGS=14.053P PB=6.17586 KF=0.001F AF=500M)
.MODEL 2P201A_1 PJF (VTO=12.3517 BETA=12.3517M LAMBDA=-30M RS=61.7586 CGD=8P
+ CGS=15.0568P PB=6.17586 KF=0.001F AF=500M)
.MODEL KP201L1 PJF (VTO=12.3517 BETA=12.3517M LAMBDA=-20M RS=61.7586 CGD=8P
+ CGS=15.0568P PB=6.17586 KF=0.001F AF=500M)
.MODEL 2P101A PJF (VTO=12.3517 BETA=12.3517M LAMBDA=-5.3M RS=61.7586
+ CGD=5.38888P CGS=7.8321E-08F KF=0.00617586F AF=3.08793)
.MODEL KP101G PJF (VTO=12.3517 BETA=12.3517M LAMBDA=-20M RS=61.7586 CGD=2.2P
+ CGS=364.574F PB=6.17586 KF=0.001F AF=500M)
.MODEL 2P103A PJF (VTO=12.3517 BETA=12.3517M LAMBDA=-10M RS=61.7586 CGD=8P
+ CGS=12.0568P PB=6.17586 KF=0.00617586F AF=3.08793)
.MODEL KP103MP PJF (VTO=12.3517 BETA=12.3517M LAMBDA=-70M RS=61.7586 CGD=8P
+ CGS=14.053P PB=6.17586 KF=0.001F AF=500M)
.MODEL 2P201A_1 PJF (VTO=12.3517 BETA=12.3517M LAMBDA=-30M RS=61.7586 CGD=8P
+ CGS=15.0568P PB=6.17586 KF=0.001F AF=500M)
.MODEL KP201L1 PJF (VTO=12.3517 BETA=12.3517M LAMBDA=-20M RS=61.7586 CGD=8P
+ CGS=15.0568P PB=6.17586 KF=0.001F AF=500M)
*** P-Channel JFET Process 89
.MODEL 2P308B9 PJF (VTO=-4.41509 BETA=332.748U LAMBDA=37.5M CGD=3.60088P
+ CGS=8.12574P PB=4.60494 KF=0.0036941F AF=500.435M)
.MODEL 2P101A PJF (VTO=12.3517 BETA=12.3517M LAMBDA=-5.3M RS=61.7586
+ CGD=5.38888P CGS=7.8321E-08F KF=0.00617586F AF=3.08793)
.MODEL KP101G PJF (VTO=12.3517 BETA=12.3517M LAMBDA=-20M RS=61.7586 CGD=2.2P
+ CGS=364.574F PB=6.17586 KF=0.001F AF=500M)
.MODEL 2P103A PJF (VTO=12.3517 BETA=12.3517M LAMBDA=-10M RS=61.7586 CGD=8P
+ CGS=12.0568P PB=6.17586 KF=0.00617586F AF=3.08793)
.MODEL KP103MP PJF (VTO=12.3517 BETA=12.3517M LAMBDA=-70M RS=61.7586 CGD=8P
+ CGS=14.053P PB=6.17586 KF=0.001F AF=500M)
.MODEL 2P201A_1 PJF (VTO=12.3517 BETA=12.3517M LAMBDA=-30M RS=61.7586 CGD=8P
+ CGS=15.0568P PB=6.17586 KF=0.001F AF=500M)
.MODEL KP201L1 PJF (VTO=12.3517 BETA=12.3517M LAMBDA=-20M RS=61.7586 CGD=8P
+ CGS=15.0568P PB=6.17586 KF=0.001F AF=500M)
